%%%%%%%%%%%%%%%%%%%%%%%%%%%%%%%%%%%%%%%%%%%%%%%%%%%%%%%%%%%%%%%%%%%%%%%%%%%%%%%%
%                                                                              %
% SU2 configuration file                                                       %
% Case description: Turbulent flow past the ONERA M6 wing                      %
% Author: Thomas D. Economon                                                   %
% Institution: Stanford University                                             %
% Date: 2014.06.14                                                             %
% File Version 7.0.8 "Blackbird"                                                %
%                                                                              %
%%%%%%%%%%%%%%%%%%%%%%%%%%%%%%%%%%%%%%%%%%%%%%%%%%%%%%%%%%%%%%%%%%%%%%%%%%%%%%%%

% ------------- DIRECT, ADJOINT, AND LINEARIZED PROBLEM DEFINITION ------------%
%
% Physical governing equations (EULER, NAVIER_STOKES,
%                               WAVE_EQUATION, HEAT_EQUATION, FEM_ELASTICITY,
%                               POISSON_EQUATION)          
SOLVER= RANS
%
% Specify turbulence model (NONE, SA, SA_NEG, SST)
KIND_TURB_MODEL= SST
%
% Mathematical problem (DIRECT, CONTINUOUS_ADJOINT)
MATH_PROBLEM= __MATH_PROBLEM__
%
% Restart solution (NO, YES)
RESTART_SOL= NO
%
SYSTEM_MEASUREMENTS= SI
% -------------------- COMPRESSIBLE FREE-STREAM DEFINITION --------------------%
%
% Mach number (non-dimensional, based on the free-stream values)
MACH_NUMBER= 0.8395
%
% Angle of attack (degrees, only for compressible flows)
AOA= 3.06
%
% Side-slip angle (degrees, only for compressible flows)
SIDESLIP_ANGLE= 0.0
%
FREESTREAM_OPTION= TEMPERATURE_FS
%
% Free-stream temperature (288.15 K by default)
FREESTREAM_TEMPERATURE= 255.556
%
%Free-stream pressure
FREESTREAM_PRESSURE= 315979.76
%
% Reynolds number (non-dimensional, based on the free-stream values)
REYNOLDS_NUMBER= 11.72E6
%
% Reynolds length (1 m by default)
REYNOLDS_LENGTH= 0.64607
%
% Free-stream Turbulence Intensity, sqrt(2 k_inf/3)/U_inf (0.0005)
FREESTREAM_TURBULENCEINTENSITY = 0.001

% Free-stream Turbulent to Laminar viscosity ratio
FREESTREAM_TURB2LAMVISCRATIO = 100.0
%
REF_DIMENSIONALIZATION= DIMENSIONAL
%
% ---- IDEAL GAS, POLYTROPIC, VAN DER WAALS AND PENG ROBINSON CONSTANTS -------%
%
% Different gas model (STANDARD_AIR, IDEAL_GAS, VW_GAS, PR_GAS)
FLUID_MODEL= STANDARD_AIR
%
% Ratio of specific heats (1.4 default and the value is hardcoded
%                          for the model STANDARD_AIR)
GAMMA_VALUE= 1.4
%
% Specific gas constant (287.058 J/kg*K default and this value is hardcoded 
%                        for the model STANDARD_AIR)
GAS_CONSTANT= 287.058
%
% Critical Temperature (131.00 K by default)
CRITICAL_TEMPERATURE= 131.00
%
% Critical Pressure (3588550.0 N/m^2 by default)
CRITICAL_PRESSURE= 3588550.0
%
% Critical Density (263.0 Kg/m3 by default)
CRITICAL_DENSITY= 263.0
%
% Acentric factor (0.035 (air))
ACENTRIC_FACTOR= 0.035

% --------------------------- VISCOSITY MODEL ---------------------------------%
%
% Viscosity model (SUTHERLAND, CONSTANT_VISCOSITY).
VISCOSITY_MODEL= SUTHERLAND
%
% Molecular Viscosity that would be constant (1.716E-5 by default)
MU_CONSTANT= 1.716E-5
%
% Sutherland Viscosity Ref (1.716E-5 default value for AIR SI)
MU_REF= 6.388223383412124e-05
%
% Sutherland Temperature Ref (273.15 K default value for AIR SI)
MU_T_REF= 255.556
%
% Sutherland constant (110.4 default value for AIR SI)
SUTHERLAND_CONSTANT= 110.4
%
% ---------------------- REFERENCE VALUE DEFINITION ---------------------------%
%
% Reference origin for moment computation
REF_ORIGIN_MOMENT_X = 0.47461639
REF_ORIGIN_MOMENT_Y = 0.00
REF_ORIGIN_MOMENT_Z = 0.00
%
% Reference length for pitching, rolling, and yawing non-dimensional moment
REF_LENGTH= 0.64607
%
% Reference area for force coefficients (0 implies automatic calculation)
REF_AREA= 0.7729

% -------------------- BOUNDARY CONDITION DEFINITION --------------------------%
%
% Navier-Stokes wall boundary marker(s) (NONE = no marker)
MARKER_HEATFLUX= ( wing, 0.0 )
%
% Far-field boundary marker(s) (NONE = no marker)
MARKER_FAR= ( farfield )
%
% Symmetry boundary marker(s) (NONE = no marker)
MARKER_SYM= ( sym )
%
% Marker(s) of the surface to be plotted or designed
MARKER_PLOTTING= ( wing )
%
% Marker(s) of the surface where the functional (Cd, Cl, etc.) will be evaluated
MARKER_MONITORING= ( wing )

% ------------- COMMON PARAMETERS DEFINING THE NUMERICAL METHOD ---------------%
%
% Numerical method for spatial gradients (GREEN_GAUSS, WEIGHTED_LEAST_SQUARES)
NUM_METHOD_GRAD= GREEN_GAUSS
%
% Courant-Friedrichs-Lewy condition of the finest grid
CFL_NUMBER= 4.0
%
% Adaptive CFL number (NO, YES)
CFL_ADAPT= NO
%
% Parameters of the adaptive CFL number (factor down, factor up, CFL min value,
%                                        CFL max value )
CFL_ADAPT_PARAM= ( 1.5, 0.5, 1.0, 100.0 )
%
% Runge-Kutta alpha coefficients
RK_ALPHA_COEFF= ( 0.66667, 0.66667, 1.000000 )
%
% Number of total iterations
ITER= __NUM_ITER__
%
% Objective function in gradient evaluation   (DRAG, LIFT, SIDEFORCE, MOMENT_X)
% For a weighted sum of objectives: separate by commas, add OBJECTIVE_WEIGHT and MARKER_MONITORING in matching order.
OBJECTIVE_FUNCTION= __OBJECTIVE_FUNCTION__
%
SMOOTH_GRADIENT = __ACTIVATE_HESSIAN__
%
SMOOTHING_PARAM = 0.25
%
SMOOTHING_PARAM_SECOND = 1.0
%
SEPARATE_DIMENSIONS = NO
%
SECOND_ORDER_INTEGRATION = YES
%
SMOOTH_ON_SURFACE=YES
%
DIRICHLET_SURFACE_BOUNDARY=NO
%
SOBOLEV_MODE=PARAM_LEVEL_COMPLETE
%
MARKER_SOBOLEVBC = ( wing )

% ------------------------ LINEAR SOLVER DEFINITION ---------------------------%
%
% Linear solver for the implicit (or discrete adjoint) formulation (BCGSTAB, FGMRES)
LINEAR_SOLVER= FGMRES
%
% Preconditioner of the Krylov linear solver (NONE, JACOBI, LINELET)
LINEAR_SOLVER_PREC= ILU
%
% Min error of the linear solver for the implicit formulation
LINEAR_SOLVER_ERROR= 1E-4
%
% Max number of iterations of the linear solver for the implicit formulation
LINEAR_SOLVER_ITER= 50

% -------------------------- MULTIGRID PARAMETERS -----------------------------%
%
% Multi-Grid Levels (0 = no multi-grid)
MGLEVEL= 3
%
% Multi-grid cycle (V_CYCLE, W_CYCLE, FULLMG_CYCLE)
MGCYCLE= W_CYCLE
%
% Multi-grid pre-smoothing level
MG_PRE_SMOOTH= ( 1, 2, 3, 3 )
%
% Multi-grid post-smoothing level
MG_POST_SMOOTH= ( 2, 2, 2, 2 )
%
% Jacobi implicit smoothing of the correction
MG_CORRECTION_SMOOTH= ( 0, 0, 0, 0 )
%
% Damping factor for the residual restriction
MG_DAMP_RESTRICTION= 0.7
%
% Damping factor for the correction prolongation
MG_DAMP_PROLONGATION= 0.7

% -------------------- FLOW NUMERICAL METHOD DEFINITION -----------------------%
%
% Convective numerical method (JST, LAX-FRIEDRICH, CUSP, ROE, AUSM, HLLC,
%                              TURKEL_PREC, MSW)
CONV_NUM_METHOD_FLOW= JST
%
% Spatial numerical order integration (1ST_ORDER, 2ND_ORDER, 2ND_ORDER_LIMITER)
MUSCL_FLOW= YES
%
% Slope limiter (NONE, VENKATAKRISHNAN, BARTH_JESPERSEN, VAN_ALBADA_EDGE,
%                SHARP_EDGES, WALL_DISTANCE)
SLOPE_LIMITER_FLOW= NONE
%
% Coefficient for the limiter (smooth regions)
VENKAT_LIMITER_COEFF= 0.03

% Reference coefficient for detecting sharp edges (3.0 by default).
%REF_SHARP_EDGES = 3.0
%
% Coefficient for the adjoint sharp edges limiter (3.0 by default).
%ADJ_SHARP_LIMITER_COEFF= 3.0
%
% Remove sharp edges from the sensitivity evaluation (NO, YES)
%SENS_REMOVE_SHARP = YES
%
% 2nd and 4th order artificial dissipation coefficients
JST_SENSOR_COEFF= ( 0.5, 0.0078125 )
%
% Time discretization (RUNGE-KUTTA_EXPLICIT, EULER_IMPLICIT, EULER_EXPLICIT)
TIME_DISCRE_FLOW= EULER_IMPLICIT
%
% -------------------- TURBULENT NUMERICAL METHOD DEFINITION ------------------%
%
% Convective numerical method (SCALAR_UPWIND)
CONV_NUM_METHOD_TURB= SCALAR_UPWIND
%
% Monotonic Upwind Scheme for Conservation Laws (TVD) in the turbulence equations.
%           Required for 2nd order upwind schemes (NO, YES)
MUSCL_TURB= NO
%
% Slope limiter (VENKATAKRISHNAN, MINMOD)
SLOPE_LIMITER_TURB= VENKATAKRISHNAN
%
% Time discretization (EULER_IMPLICIT)
TIME_DISCRE_TURB= EULER_IMPLICIT

% --------------------------- CONVERGENCE PARAMETERS --------------------------%
% Convergence criteria (CAUCHY, RESIDUAL)
%
CONV_FIELD= RMS_DENSITY, RMS_ADJ_DENSITY
%
% Convergence criteria (CAUCHY, RESIDUAL)
CONV_CRITERIA= RESIDUAL
%
% Min value of the residual (log10 of the residual)
CONV_RESIDUAL_MINVAL= -16
%
% Start convergence criteria at iteration number
CONV_STARTITER= 10
%
% Number of elements to apply the criteria
CONV_CAUCHY_ELEMS= 100
%
% Epsilon to control the series convergence
CONV_CAUCHY_EPS= 1E-6
%

% ----------------------- GEOMETRY EVALUATION PARAMETERS ----------------------%
%
% Marker(s) of the surface where geometrical based function will be evaluated
GEO_MARKER= ( wing )
%
% Description of the geometry to be analyzed (AIRFOIL, WING, FUSELAGE)
GEO_DESCRIPTION= WING
%
% Coordinate of the stations to be analyzed
GEO_LOCATION_STATIONS= (0.0, 0.2, 0.4, 0.6, 0.8)
%
% Geometrical bounds (Y coordinate) for the wing geometry analysis or
% fuselage evaluation (X coordinate)
GEO_BOUNDS= (0, 0.8)
%
% Plot loads and Cp distributions on each airfoil section
GEO_PLOT_STATIONS= YES 
%
% Number of section cuts to make when calculating wing geometry
GEO_NUMBER_STATIONS= 25
%
% Geometrical evaluation mode (FUNCTION, GRADIENT)
GEO_MODE= GRADIENT

% -------------------- FREE-FORM DEFORMATION PARAMETERS -----------------------%
%
% Tolerance of the Free-Form Deformation point inversion
FFD_TOLERANCE= 1E-10
%
% Maximum number of iterations in the Free-Form Deformation point inversion
FFD_ITERATIONS= 500
%
% FFD box definition: 3D case (FFD_BoxTag, X1, Y1, Z1, X2, Y2, Z2, X3, Y3, Z3, X4, Y4, Z4,
%                              X5, Y5, Z5, X6, Y6, Z6, X7, Y7, Z7, X8, Y8, Z8)
%                     2D case (FFD_BoxTag, X1, Y1, 0.0, X2, Y2, 0.0, X3, Y3, 0.0, X4, Y4, 0.0,
%                              0.0, 0.0, 0.0, 0.0, 0.0, 0.0, 0.0, 0.0, 0.0, 0.0, 0.0, 0.0)
FFD_DEFINITION= (WING, -0.0403, 0, -0.04836, 0.8463,0, -0.04836, 1.209, 1.2896, -0.04836, 0.6851, 1.2896, -0.04836, -0.0403, 0, 0.04836, 0.8463, 0, 0.04836, 1.209, 1.2896, 0.04836, 0.6851, 1.2896, 0.04836)
%
% FFD box degree: 3D case (x_degree, y_degree, z_degree)
%                 2D case (x_degree, y_degree, 0)
FFD_DEGREE= (10, 8, 1)
%
% Surface grid continuity at the intersection with the faces of the FFD boxes.
% To keep a particular level of surface continuity, SU2 automatically freezes the right
% number of control point planes (NO_DERIVATIVE, 1ST_DERIVATIVE, 2ND_DERIVATIVE, USER_INPUT)
FFD_CONTINUITY= 2ND_DERIVATIVE
%
% There is a symmetry plane (j=0) for all the FFD boxes (YES, NO)
FFD_SYMMETRY_PLANE= YES

% ----------------------- DESIGN VARIABLE PARAMETERS --------------------------%
%
% Kind of deformation (FFD_SETTING, FFD_CONTROL_POINT_2D, FFD_CAMBER_2D, FFD_THICKNESS_2D,
%                      HICKS_HENNE, COSINE_BUMP, PARABOLIC,
%                      NACA_4DIGITS, DISPLACEMENT, ROTATION, FFD_CONTROL_POINT, 
%                      FFD_DIHEDRAL_ANGLE, FFD_TWIST_ANGLE, FFD_ROTATION,
%                      FFD_CAMBER, FFD_THICKNESS, FFD_CONTROL_SURFACE, SURFACE_FILE, AIRFOIL)
DV_KIND= FFD_CONTROL_POINT, FFD_CONTROL_POINT, FFD_CONTROL_POINT, FFD_CONTROL_POINT, FFD_CONTROL_POINT, FFD_CONTROL_POINT, FFD_CONTROL_POINT, FFD_CONTROL_POINT, FFD_CONTROL_POINT, FFD_CONTROL_POINT, FFD_CONTROL_POINT, FFD_CONTROL_POINT, FFD_CONTROL_POINT, FFD_CONTROL_POINT, FFD_CONTROL_POINT, FFD_CONTROL_POINT, FFD_CONTROL_POINT, FFD_CONTROL_POINT, FFD_CONTROL_POINT, FFD_CONTROL_POINT, FFD_CONTROL_POINT, FFD_CONTROL_POINT, FFD_CONTROL_POINT, FFD_CONTROL_POINT, FFD_CONTROL_POINT, FFD_CONTROL_POINT, FFD_CONTROL_POINT, FFD_CONTROL_POINT, FFD_CONTROL_POINT, FFD_CONTROL_POINT, FFD_CONTROL_POINT, FFD_CONTROL_POINT, FFD_CONTROL_POINT, FFD_CONTROL_POINT, FFD_CONTROL_POINT, FFD_CONTROL_POINT, FFD_CONTROL_POINT, FFD_CONTROL_POINT, FFD_CONTROL_POINT, FFD_CONTROL_POINT, FFD_CONTROL_POINT, FFD_CONTROL_POINT, FFD_CONTROL_POINT, FFD_CONTROL_POINT, FFD_CONTROL_POINT, FFD_CONTROL_POINT, FFD_CONTROL_POINT, FFD_CONTROL_POINT, FFD_CONTROL_POINT, FFD_CONTROL_POINT, FFD_CONTROL_POINT, FFD_CONTROL_POINT, FFD_CONTROL_POINT, FFD_CONTROL_POINT, FFD_CONTROL_POINT, FFD_CONTROL_POINT, FFD_CONTROL_POINT, FFD_CONTROL_POINT, FFD_CONTROL_POINT, FFD_CONTROL_POINT, FFD_CONTROL_POINT, FFD_CONTROL_POINT, FFD_CONTROL_POINT, FFD_CONTROL_POINT, FFD_CONTROL_POINT, FFD_CONTROL_POINT, FFD_CONTROL_POINT, FFD_CONTROL_POINT, FFD_CONTROL_POINT, FFD_CONTROL_POINT, FFD_CONTROL_POINT, FFD_CONTROL_POINT, FFD_CONTROL_POINT, FFD_CONTROL_POINT, FFD_CONTROL_POINT, FFD_CONTROL_POINT, FFD_CONTROL_POINT, FFD_CONTROL_POINT, FFD_CONTROL_POINT, FFD_CONTROL_POINT, FFD_CONTROL_POINT, FFD_CONTROL_POINT, FFD_CONTROL_POINT, FFD_CONTROL_POINT, FFD_CONTROL_POINT, FFD_CONTROL_POINT, FFD_CONTROL_POINT, FFD_CONTROL_POINT, FFD_CONTROL_POINT, FFD_CONTROL_POINT, FFD_CONTROL_POINT, FFD_CONTROL_POINT, FFD_CONTROL_POINT, FFD_CONTROL_POINT, FFD_CONTROL_POINT, FFD_CONTROL_POINT, FFD_CONTROL_POINT, FFD_CONTROL_POINT, FFD_CONTROL_POINT, FFD_CONTROL_POINT, FFD_CONTROL_POINT, FFD_CONTROL_POINT, FFD_CONTROL_POINT, FFD_CONTROL_POINT, FFD_CONTROL_POINT, FFD_CONTROL_POINT, FFD_CONTROL_POINT, FFD_CONTROL_POINT, FFD_CONTROL_POINT, FFD_CONTROL_POINT, FFD_CONTROL_POINT, FFD_CONTROL_POINT, FFD_CONTROL_POINT, FFD_CONTROL_POINT, FFD_CONTROL_POINT, FFD_CONTROL_POINT, FFD_CONTROL_POINT, FFD_CONTROL_POINT, FFD_CONTROL_POINT, FFD_CONTROL_POINT, FFD_CONTROL_POINT, FFD_CONTROL_POINT, FFD_CONTROL_POINT, FFD_CONTROL_POINT, FFD_CONTROL_POINT, FFD_CONTROL_POINT, FFD_CONTROL_POINT, FFD_CONTROL_POINT, FFD_CONTROL_POINT, FFD_CONTROL_POINT, FFD_CONTROL_POINT, FFD_CONTROL_POINT, FFD_CONTROL_POINT, FFD_CONTROL_POINT, FFD_CONTROL_POINT, FFD_CONTROL_POINT, FFD_CONTROL_POINT, FFD_CONTROL_POINT, FFD_CONTROL_POINT, FFD_CONTROL_POINT, FFD_CONTROL_POINT, FFD_CONTROL_POINT, FFD_CONTROL_POINT, FFD_CONTROL_POINT, FFD_CONTROL_POINT, FFD_CONTROL_POINT, FFD_CONTROL_POINT, FFD_CONTROL_POINT, FFD_CONTROL_POINT, FFD_CONTROL_POINT, FFD_CONTROL_POINT, FFD_CONTROL_POINT, FFD_CONTROL_POINT, FFD_CONTROL_POINT, FFD_CONTROL_POINT, FFD_CONTROL_POINT, FFD_CONTROL_POINT, FFD_CONTROL_POINT, FFD_CONTROL_POINT, FFD_CONTROL_POINT, FFD_CONTROL_POINT, FFD_CONTROL_POINT, FFD_CONTROL_POINT, FFD_CONTROL_POINT, FFD_CONTROL_POINT, FFD_CONTROL_POINT, FFD_CONTROL_POINT, FFD_CONTROL_POINT, FFD_CONTROL_POINT, FFD_CONTROL_POINT, FFD_CONTROL_POINT, FFD_CONTROL_POINT, FFD_CONTROL_POINT, FFD_CONTROL_POINT, FFD_CONTROL_POINT, FFD_CONTROL_POINT, FFD_CONTROL_POINT, FFD_CONTROL_POINT, FFD_CONTROL_POINT, FFD_CONTROL_POINT, FFD_CONTROL_POINT, FFD_CONTROL_POINT, FFD_CONTROL_POINT, FFD_CONTROL_POINT, FFD_CONTROL_POINT, FFD_CONTROL_POINT, FFD_CONTROL_POINT, FFD_CONTROL_POINT, FFD_CONTROL_POINT, FFD_CONTROL_POINT, FFD_CONTROL_POINT, FFD_CONTROL_POINT, FFD_CONTROL_POINT, FFD_CONTROL_POINT, FFD_CONTROL_POINT, FFD_CONTROL_POINT, FFD_CONTROL_POINT, FFD_CONTROL_POINT
%
% Marker of the surface in which we are going apply the shape deformation
DV_MARKER= ( wing )
%
% Parameters of the shape deformation 
% 	- FFD_CONTROL_POINT ( FFD_BoxTag, i_Ind, j_Ind, k_Ind, x_Disp, y_Disp, z_Disp )
% 	- FFD_DIHEDRAL_ANGLE ( FFD_BoxTag, x_Orig, y_Orig, z_Orig, x_End, y_End, z_End )
% 	- FFD_TWIST_ANGLE ( FFD_BoxTag, x_Orig, y_Orig, z_Orig, x_End, y_End, z_End )
% 	- FFD_ROTATION ( FFD_BoxTag, x_Orig, y_Orig, z_Orig, x_End, y_End, z_End )
% 	- FFD_CAMBER ( FFD_BoxTag, i_Ind, j_Ind )
% 	- FFD_THICKNESS ( FFD_BoxTag, i_Ind, j_Ind )
% 	- FFD_VOLUME ( FFD_BoxTag, i_Ind, j_Ind )
DV_PARAM= ( WINGBOX, 0.0, 0.0, 0.0, 0.0, 0.0, 1.0) ; ( WINGBOX, 1.0, 0.0, 0.0, 0.0, 0.0, 1.0) ; ( WINGBOX, 2.0, 0.0, 0.0, 0.0, 0.0, 1.0) ; ( WINGBOX, 3.0, 0.0, 0.0, 0.0, 0.0, 1.0) ; ( WINGBOX, 4.0, 0.0, 0.0, 0.0, 0.0, 1.0) ; ( WINGBOX, 5.0, 0.0, 0.0, 0.0, 0.0, 1.0) ; ( WINGBOX, 6.0, 0.0, 0.0, 0.0, 0.0, 1.0) ; ( WINGBOX, 7.0, 0.0, 0.0, 0.0, 0.0, 1.0) ; ( WINGBOX, 8.0, 0.0, 0.0, 0.0, 0.0, 1.0) ; ( WINGBOX, 9.0, 0.0, 0.0, 0.0, 0.0, 1.0) ; ( WINGBOX, 10.0, 0.0, 0.0, 0.0, 0.0, 1.0) ; ( WINGBOX, 0.0, 1.0, 0.0, 0.0, 0.0, 1.0) ; ( WINGBOX, 1.0, 1.0, 0.0, 0.0, 0.0, 1.0) ; ( WINGBOX, 2.0, 1.0, 0.0, 0.0, 0.0, 1.0) ; ( WINGBOX, 3.0, 1.0, 0.0, 0.0, 0.0, 1.0) ; ( WINGBOX, 4.0, 1.0, 0.0, 0.0, 0.0, 1.0) ; ( WINGBOX, 5.0, 1.0, 0.0, 0.0, 0.0, 1.0) ; ( WINGBOX, 6.0, 1.0, 0.0, 0.0, 0.0, 1.0) ; ( WINGBOX, 7.0, 1.0, 0.0, 0.0, 0.0, 1.0) ; ( WINGBOX, 8.0, 1.0, 0.0, 0.0, 0.0, 1.0) ; ( WINGBOX, 9.0, 1.0, 0.0, 0.0, 0.0, 1.0) ; ( WINGBOX, 10.0, 1.0, 0.0, 0.0, 0.0, 1.0) ; ( WINGBOX, 0.0, 2.0, 0.0, 0.0, 0.0, 1.0) ; ( WINGBOX, 1.0, 2.0, 0.0, 0.0, 0.0, 1.0) ; ( WINGBOX, 2.0, 2.0, 0.0, 0.0, 0.0, 1.0) ; ( WINGBOX, 3.0, 2.0, 0.0, 0.0, 0.0, 1.0) ; ( WINGBOX, 4.0, 2.0, 0.0, 0.0, 0.0, 1.0) ; ( WINGBOX, 5.0, 2.0, 0.0, 0.0, 0.0, 1.0) ; ( WINGBOX, 6.0, 2.0, 0.0, 0.0, 0.0, 1.0) ; ( WINGBOX, 7.0, 2.0, 0.0, 0.0, 0.0, 1.0) ; ( WINGBOX, 8.0, 2.0, 0.0, 0.0, 0.0, 1.0) ; ( WINGBOX, 9.0, 2.0, 0.0, 0.0, 0.0, 1.0) ; ( WINGBOX, 10.0, 2.0, 0.0, 0.0, 0.0, 1.0) ; ( WINGBOX, 0.0, 3.0, 0.0, 0.0, 0.0, 1.0) ; ( WINGBOX, 1.0, 3.0, 0.0, 0.0, 0.0, 1.0) ; ( WINGBOX, 2.0, 3.0, 0.0, 0.0, 0.0, 1.0) ; ( WINGBOX, 3.0, 3.0, 0.0, 0.0, 0.0, 1.0) ; ( WINGBOX, 4.0, 3.0, 0.0, 0.0, 0.0, 1.0) ; ( WINGBOX, 5.0, 3.0, 0.0, 0.0, 0.0, 1.0) ; ( WINGBOX, 6.0, 3.0, 0.0, 0.0, 0.0, 1.0) ; ( WINGBOX, 7.0, 3.0, 0.0, 0.0, 0.0, 1.0) ; ( WINGBOX, 8.0, 3.0, 0.0, 0.0, 0.0, 1.0) ; ( WINGBOX, 9.0, 3.0, 0.0, 0.0, 0.0, 1.0) ; ( WINGBOX, 10.0, 3.0, 0.0, 0.0, 0.0, 1.0) ; ( WINGBOX, 0.0, 4.0, 0.0, 0.0, 0.0, 1.0) ; ( WINGBOX, 1.0, 4.0, 0.0, 0.0, 0.0, 1.0) ; ( WINGBOX, 2.0, 4.0, 0.0, 0.0, 0.0, 1.0) ; ( WINGBOX, 3.0, 4.0, 0.0, 0.0, 0.0, 1.0) ; ( WINGBOX, 4.0, 4.0, 0.0, 0.0, 0.0, 1.0) ; ( WINGBOX, 5.0, 4.0, 0.0, 0.0, 0.0, 1.0) ; ( WINGBOX, 6.0, 4.0, 0.0, 0.0, 0.0, 1.0) ; ( WINGBOX, 7.0, 4.0, 0.0, 0.0, 0.0, 1.0) ; ( WINGBOX, 8.0, 4.0, 0.0, 0.0, 0.0, 1.0) ; ( WINGBOX, 9.0, 4.0, 0.0, 0.0, 0.0, 1.0) ; ( WINGBOX, 10.0, 4.0, 0.0, 0.0, 0.0, 1.0) ; ( WINGBOX, 0.0, 5.0, 0.0, 0.0, 0.0, 1.0) ; ( WINGBOX, 1.0, 5.0, 0.0, 0.0, 0.0, 1.0) ; ( WINGBOX, 2.0, 5.0, 0.0, 0.0, 0.0, 1.0) ; ( WINGBOX, 3.0, 5.0, 0.0, 0.0, 0.0, 1.0) ; ( WINGBOX, 4.0, 5.0, 0.0, 0.0, 0.0, 1.0) ; ( WINGBOX, 5.0, 5.0, 0.0, 0.0, 0.0, 1.0) ; ( WINGBOX, 6.0, 5.0, 0.0, 0.0, 0.0, 1.0) ; ( WINGBOX, 7.0, 5.0, 0.0, 0.0, 0.0, 1.0) ; ( WINGBOX, 8.0, 5.0, 0.0, 0.0, 0.0, 1.0) ; ( WINGBOX, 9.0, 5.0, 0.0, 0.0, 0.0, 1.0) ; ( WINGBOX, 10.0, 5.0, 0.0, 0.0, 0.0, 1.0) ; ( WINGBOX, 0.0, 6.0, 0.0, 0.0, 0.0, 1.0) ; ( WINGBOX, 1.0, 6.0, 0.0, 0.0, 0.0, 1.0) ; ( WINGBOX, 2.0, 6.0, 0.0, 0.0, 0.0, 1.0) ; ( WINGBOX, 3.0, 6.0, 0.0, 0.0, 0.0, 1.0) ; ( WINGBOX, 4.0, 6.0, 0.0, 0.0, 0.0, 1.0) ; ( WINGBOX, 5.0, 6.0, 0.0, 0.0, 0.0, 1.0) ; ( WINGBOX, 6.0, 6.0, 0.0, 0.0, 0.0, 1.0) ; ( WINGBOX, 7.0, 6.0, 0.0, 0.0, 0.0, 1.0) ; ( WINGBOX, 8.0, 6.0, 0.0, 0.0, 0.0, 1.0) ; ( WINGBOX, 9.0, 6.0, 0.0, 0.0, 0.0, 1.0) ; ( WINGBOX, 10.0, 6.0, 0.0, 0.0, 0.0, 1.0) ; ( WINGBOX, 0.0, 7.0, 0.0, 0.0, 0.0, 1.0) ; ( WINGBOX, 1.0, 7.0, 0.0, 0.0, 0.0, 1.0) ; ( WINGBOX, 2.0, 7.0, 0.0, 0.0, 0.0, 1.0) ; ( WINGBOX, 3.0, 7.0, 0.0, 0.0, 0.0, 1.0) ; ( WINGBOX, 4.0, 7.0, 0.0, 0.0, 0.0, 1.0) ; ( WINGBOX, 5.0, 7.0, 0.0, 0.0, 0.0, 1.0) ; ( WINGBOX, 6.0, 7.0, 0.0, 0.0, 0.0, 1.0) ; ( WINGBOX, 7.0, 7.0, 0.0, 0.0, 0.0, 1.0) ; ( WINGBOX, 8.0, 7.0, 0.0, 0.0, 0.0, 1.0) ; ( WINGBOX, 9.0, 7.0, 0.0, 0.0, 0.0, 1.0) ; ( WINGBOX, 10.0, 7.0, 0.0, 0.0, 0.0, 1.0) ; ( WINGBOX, 0.0, 8.0, 0.0, 0.0, 0.0, 1.0) ; ( WINGBOX, 1.0, 8.0, 0.0, 0.0, 0.0, 1.0) ; ( WINGBOX, 2.0, 8.0, 0.0, 0.0, 0.0, 1.0) ; ( WINGBOX, 3.0, 8.0, 0.0, 0.0, 0.0, 1.0) ; ( WINGBOX, 4.0, 8.0, 0.0, 0.0, 0.0, 1.0) ; ( WINGBOX, 5.0, 8.0, 0.0, 0.0, 0.0, 1.0) ; ( WINGBOX, 6.0, 8.0, 0.0, 0.0, 0.0, 1.0) ; ( WINGBOX, 7.0, 8.0, 0.0, 0.0, 0.0, 1.0) ; ( WINGBOX, 8.0, 8.0, 0.0, 0.0, 0.0, 1.0) ; ( WINGBOX, 9.0, 8.0, 0.0, 0.0, 0.0, 1.0) ; ( WINGBOX, 10.0, 8.0, 0.0, 0.0, 0.0, 1.0) ; ( WINGBOX, 0.0, 0.0, 1.0, 0.0, 0.0, 1.0) ; ( WINGBOX, 1.0, 0.0, 1.0, 0.0, 0.0, 1.0) ; ( WINGBOX, 2.0, 0.0, 1.0, 0.0, 0.0, 1.0) ; ( WINGBOX, 3.0, 0.0, 1.0, 0.0, 0.0, 1.0) ; ( WINGBOX, 4.0, 0.0, 1.0, 0.0, 0.0, 1.0) ; ( WINGBOX, 5.0, 0.0, 1.0, 0.0, 0.0, 1.0) ; ( WINGBOX, 6.0, 0.0, 1.0, 0.0, 0.0, 1.0) ; ( WINGBOX, 7.0, 0.0, 1.0, 0.0, 0.0, 1.0) ; ( WINGBOX, 8.0, 0.0, 1.0, 0.0, 0.0, 1.0) ; ( WINGBOX, 9.0, 0.0, 1.0, 0.0, 0.0, 1.0) ; ( WINGBOX, 10.0, 0.0, 1.0, 0.0, 0.0, 1.0) ; ( WINGBOX, 0.0, 1.0, 1.0, 0.0, 0.0, 1.0) ; ( WINGBOX, 1.0, 1.0, 1.0, 0.0, 0.0, 1.0) ; ( WINGBOX, 2.0, 1.0, 1.0, 0.0, 0.0, 1.0) ; ( WINGBOX, 3.0, 1.0, 1.0, 0.0, 0.0, 1.0) ; ( WINGBOX, 4.0, 1.0, 1.0, 0.0, 0.0, 1.0) ; ( WINGBOX, 5.0, 1.0, 1.0, 0.0, 0.0, 1.0) ; ( WINGBOX, 6.0, 1.0, 1.0, 0.0, 0.0, 1.0) ; ( WINGBOX, 7.0, 1.0, 1.0, 0.0, 0.0, 1.0) ; ( WINGBOX, 8.0, 1.0, 1.0, 0.0, 0.0, 1.0) ; ( WINGBOX, 9.0, 1.0, 1.0, 0.0, 0.0, 1.0) ; ( WINGBOX, 10.0, 1.0, 1.0, 0.0, 0.0, 1.0) ; ( WINGBOX, 0.0, 2.0, 1.0, 0.0, 0.0, 1.0) ; ( WINGBOX, 1.0, 2.0, 1.0, 0.0, 0.0, 1.0) ; ( WINGBOX, 2.0, 2.0, 1.0, 0.0, 0.0, 1.0) ; ( WINGBOX, 3.0, 2.0, 1.0, 0.0, 0.0, 1.0) ; ( WINGBOX, 4.0, 2.0, 1.0, 0.0, 0.0, 1.0) ; ( WINGBOX, 5.0, 2.0, 1.0, 0.0, 0.0, 1.0) ; ( WINGBOX, 6.0, 2.0, 1.0, 0.0, 0.0, 1.0) ; ( WINGBOX, 7.0, 2.0, 1.0, 0.0, 0.0, 1.0) ; ( WINGBOX, 8.0, 2.0, 1.0, 0.0, 0.0, 1.0) ; ( WINGBOX, 9.0, 2.0, 1.0, 0.0, 0.0, 1.0) ; ( WINGBOX, 10.0, 2.0, 1.0, 0.0, 0.0, 1.0) ; ( WINGBOX, 0.0, 3.0, 1.0, 0.0, 0.0, 1.0) ; ( WINGBOX, 1.0, 3.0, 1.0, 0.0, 0.0, 1.0) ; ( WINGBOX, 2.0, 3.0, 1.0, 0.0, 0.0, 1.0) ; ( WINGBOX, 3.0, 3.0, 1.0, 0.0, 0.0, 1.0) ; ( WINGBOX, 4.0, 3.0, 1.0, 0.0, 0.0, 1.0) ; ( WINGBOX, 5.0, 3.0, 1.0, 0.0, 0.0, 1.0) ; ( WINGBOX, 6.0, 3.0, 1.0, 0.0, 0.0, 1.0) ; ( WINGBOX, 7.0, 3.0, 1.0, 0.0, 0.0, 1.0) ; ( WINGBOX, 8.0, 3.0, 1.0, 0.0, 0.0, 1.0) ; ( WINGBOX, 9.0, 3.0, 1.0, 0.0, 0.0, 1.0) ; ( WINGBOX, 10.0, 3.0, 1.0, 0.0, 0.0, 1.0) ; ( WINGBOX, 0.0, 4.0, 1.0, 0.0, 0.0, 1.0) ; ( WINGBOX, 1.0, 4.0, 1.0, 0.0, 0.0, 1.0) ; ( WINGBOX, 2.0, 4.0, 1.0, 0.0, 0.0, 1.0) ; ( WINGBOX, 3.0, 4.0, 1.0, 0.0, 0.0, 1.0) ; ( WINGBOX, 4.0, 4.0, 1.0, 0.0, 0.0, 1.0) ; ( WINGBOX, 5.0, 4.0, 1.0, 0.0, 0.0, 1.0) ; ( WINGBOX, 6.0, 4.0, 1.0, 0.0, 0.0, 1.0) ; ( WINGBOX, 7.0, 4.0, 1.0, 0.0, 0.0, 1.0) ; ( WINGBOX, 8.0, 4.0, 1.0, 0.0, 0.0, 1.0) ; ( WINGBOX, 9.0, 4.0, 1.0, 0.0, 0.0, 1.0) ; ( WINGBOX, 10.0, 4.0, 1.0, 0.0, 0.0, 1.0) ; ( WINGBOX, 0.0, 5.0, 1.0, 0.0, 0.0, 1.0) ; ( WINGBOX, 1.0, 5.0, 1.0, 0.0, 0.0, 1.0) ; ( WINGBOX, 2.0, 5.0, 1.0, 0.0, 0.0, 1.0) ; ( WINGBOX, 3.0, 5.0, 1.0, 0.0, 0.0, 1.0) ; ( WINGBOX, 4.0, 5.0, 1.0, 0.0, 0.0, 1.0) ; ( WINGBOX, 5.0, 5.0, 1.0, 0.0, 0.0, 1.0) ; ( WINGBOX, 6.0, 5.0, 1.0, 0.0, 0.0, 1.0) ; ( WINGBOX, 7.0, 5.0, 1.0, 0.0, 0.0, 1.0) ; ( WINGBOX, 8.0, 5.0, 1.0, 0.0, 0.0, 1.0) ; ( WINGBOX, 9.0, 5.0, 1.0, 0.0, 0.0, 1.0) ; ( WINGBOX, 10.0, 5.0, 1.0, 0.0, 0.0, 1.0) ; ( WINGBOX, 0.0, 6.0, 1.0, 0.0, 0.0, 1.0) ; ( WINGBOX, 1.0, 6.0, 1.0, 0.0, 0.0, 1.0) ; ( WINGBOX, 2.0, 6.0, 1.0, 0.0, 0.0, 1.0) ; ( WINGBOX, 3.0, 6.0, 1.0, 0.0, 0.0, 1.0) ; ( WINGBOX, 4.0, 6.0, 1.0, 0.0, 0.0, 1.0) ; ( WINGBOX, 5.0, 6.0, 1.0, 0.0, 0.0, 1.0) ; ( WINGBOX, 6.0, 6.0, 1.0, 0.0, 0.0, 1.0) ; ( WINGBOX, 7.0, 6.0, 1.0, 0.0, 0.0, 1.0) ; ( WINGBOX, 8.0, 6.0, 1.0, 0.0, 0.0, 1.0) ; ( WINGBOX, 9.0, 6.0, 1.0, 0.0, 0.0, 1.0) ; ( WINGBOX, 10.0, 6.0, 1.0, 0.0, 0.0, 1.0) ; ( WINGBOX, 0.0, 7.0, 1.0, 0.0, 0.0, 1.0) ; ( WINGBOX, 1.0, 7.0, 1.0, 0.0, 0.0, 1.0) ; ( WINGBOX, 2.0, 7.0, 1.0, 0.0, 0.0, 1.0) ; ( WINGBOX, 3.0, 7.0, 1.0, 0.0, 0.0, 1.0) ; ( WINGBOX, 4.0, 7.0, 1.0, 0.0, 0.0, 1.0) ; ( WINGBOX, 5.0, 7.0, 1.0, 0.0, 0.0, 1.0) ; ( WINGBOX, 6.0, 7.0, 1.0, 0.0, 0.0, 1.0) ; ( WINGBOX, 7.0, 7.0, 1.0, 0.0, 0.0, 1.0) ; ( WINGBOX, 8.0, 7.0, 1.0, 0.0, 0.0, 1.0) ; ( WINGBOX, 9.0, 7.0, 1.0, 0.0, 0.0, 1.0) ; ( WINGBOX, 10.0, 7.0, 1.0, 0.0, 0.0, 1.0) ; ( WINGBOX, 0.0, 8.0, 1.0, 0.0, 0.0, 1.0) ; ( WINGBOX, 1.0, 8.0, 1.0, 0.0, 0.0, 1.0) ; ( WINGBOX, 2.0, 8.0, 1.0, 0.0, 0.0, 1.0) ; ( WINGBOX, 3.0, 8.0, 1.0, 0.0, 0.0, 1.0) ; ( WINGBOX, 4.0, 8.0, 1.0, 0.0, 0.0, 1.0) ; ( WINGBOX, 5.0, 8.0, 1.0, 0.0, 0.0, 1.0) ; ( WINGBOX, 6.0, 8.0, 1.0, 0.0, 0.0, 1.0) ; ( WINGBOX, 7.0, 8.0, 1.0, 0.0, 0.0, 1.0) ; ( WINGBOX, 8.0, 8.0, 1.0, 0.0, 0.0, 1.0) ; ( WINGBOX, 9.0, 8.0, 1.0, 0.0, 0.0, 1.0) ; ( WINGBOX, 10.0, 8.0, 1.0, 0.0, 0.0, 1.0) 
%
% New value of the shape deformation
DV_VALUE=__X__

% ------------------------ GRID DEFORMATION PARAMETERS ------------------------%
%
% Linear solver or smoother for implicit formulations (FGMRES, RESTARTED_FGMRES, BCGSTAB)
DEFORM_LINEAR_SOLVER= FGMRES
%
% Number of smoothing iterations for mesh deformation
DEFORM_LINEAR_SOLVER_ITER= 500
%
% Minimum residual criteria for the linear solver convergence of grid deformation
DEFORM_LINEAR_SOLVER_ERROR= 1E-14
%
% Print the residuals during mesh deformation to the console (YES, NO)
DEFORM_CONSOLE_OUTPUT= YES
%
% Type of element stiffness imposed for FEA mesh deformation (INVERSE_VOLUME, 
%                                          WALL_DISTANCE, CONSTANT_STIFFNESS)
DEFORM_STIFFNESS_TYPE= WALL_DISTANCE

% ------------------------- INPUT/OUTPUT INFORMATION --------------------------%
%
%
% Mesh input file
MESH_FILENAME= __MESH_FILENAME__
%
% Mesh input file format (SU2, CGNS, NETCDF_ASCII)
MESH_FORMAT= SU2
%
% Mesh output file
MESH_OUT_FILENAME= str3_deform.su2
%
% Restart flow input file
SOLUTION_FILENAME= solution_flow.dat
%
% Restart adjoint input file
SOLUTION_ADJ_FILENAME= solution_adj.dat
%
% Output file convergence history (w/o extension) 
CONV_FILENAME= history
%
% Output file restart flow
RESTART_FILENAME= restart_flow.dat
%
% Output file restart adjoint
RESTART_ADJ_FILENAME= restart_adj.dat
%
% Output file flow (w/o extension) variables
VOLUME_FILENAME= flow
%
% Output file adjoint (w/o extension) variables
VOLUME_ADJ_FILENAME= adjoint
%
% Output objective function gradient (using continuous adjoint)
GRAD_OBJFUNC_FILENAME= of_grad.dat
%
% Output objective function gradient (using continuous adjoint)
HESS_OBJFUNC_FILENAME= of_hess.dat
%
% Output file surface flow coefficient (w/o extension)
SURFACE_FILENAME= surface_flow
%
% Output file surface adjoint coefficient (w/o extension)
SURFACE_ADJ_FILENAME= surface_adjoint
%
% Writing solution file frequency
OUTPUT_WRT_FREQ= 2500
%
% Writing convergence history frequency
SCREEN_WRT_FREQ_INNER= 100
%
% Volume Output
VOLUME_OUTPUT= (COORD-X, COORD-Y, COORD-Z, DENSITY, MOMENTUM-X, MOMENTUM-Y, MOMENTUM-Z, PRESSURE, MACH, PRESSURE_COEFF, Y_PLUS, DISSIPATION, EDDY_VISCOSITY)
%
% Screen output fields
SCREEN_OUTPUT = (INNER_ITER, MAX_CFL, RMS_DENSITY, RMS_MOMENTUM-X, RMS_MOMENTUM-Y, RMS_MOMENTUM-Z, RMS_ENERGY, RMS_TKE, RMS_DISSIPATION, LIFT, DRAG)
%
% Output file format (PARAVIEW, TECPLOT, STL)
OUTPUT_FILES=(RESTART, PARAVIEW, SURFACE_TECPLOT, SURFACE_PARAVIEW)
%
TABULAR_FORMAT= TECPLOT
%
% History file data fields
HISTORY_OUTPUT= (ITER, RMS_RES, AERO_COEFF, SENSITIVITY)

% --------------------- OPTIMAL SHAPE DESIGN DEFINITION -----------------------%
%
% Optimization objective function with optional scaling factor
% ex= Objective * Scale
OPT_OBJECTIVE= DRAG

% Optimization constraint functions with scaling factors, separated by semicolons
% ex= (Objective = Value ) * Scale, use '>','<','='
OPT_CONSTRAINT= ( LIFT = 0.2077 ) ; ( STATION1_THICKNESS > 0.077); (STATION2_THICKNESS > 0.072); (STATION3_THICKNESS > 0.066); (STATION4_THICKNESS > 0.060); (STATION5_THICKNESS > 0.054) 

% Maximum number of iterations
OPT_ITERATIONS= 100
%
% Upper bound for each design variable (bound in the python optimizer)
OPT_BOUND_UPPER= 0.01
%
% Lower bound for each design variable (bound in the python optimizer)
OPT_BOUND_LOWER= -0.01
%
OPT_GRADIENT_FACTOR = 1.0
%
OPT_HESSIAN_FACTOR = 1.0
%
% Modus for the handwritten SQP solver
SQP_MODE = SQP_CVXOPT
%
% Modus for the SQP linesearch
LINESEARCH_MODE = -1.0
%
% List of design variables (Design variables are separated by semicolons)